21
1FK9
Cl -2.552 -35.357 21.875
F 3.103 -39.533 20.653
F 1.291 -39.22 21.733
F 1.233 -39.534 19.626
O 3.473 -37.354 17.097
O 2.998 -37.198 19.262
N 1.285 -37.081 17.675
C 0.344 -36.636 18.662
C -0.926 -36.143 18.308
C -1.81 -35.743 19.324
C -1.449 -35.848 20.656
C -0.212 -36.339 21.018
C 0.666 -36.776 20.019
C 2.046 -37.386 20.366
C 2.638 -36.81 21.593
C 3.092 -36.34 22.562
C 3.756 -35.646 23.967
C 4.186 -34.543 23.619
C 3.056 -34.656 24.211
C 1.913 -38.938 20.596
C 2.638 -37.219 17.935
